opendss_networks/LV29_90bus/lines.dss
new line.L_109 lineCode=uglv_240al_xlpe/nyl/pvc_ug_4w_bundled bus1=B2537 bus2=B1732 length=0.0495169682920 units=km phases=4
new line.L_229 lineCode=ughv_400al_triplex_ug_4w_bundled bus1=B856 bus2=B1896 length=0.000206301915236 units=km phases=4
new line.L_249 lineCode=ughv_400al_triplex_ug_4w_bundled bus1=B3001 bus2=B2340 length=0.000244629175463 units=km phases=4
new line.L_262 lineCode=ugsc_16cu_xlpe/nyl/pvc_ug_4w_bundled bus1=B116 bus2=B480 length=0.00807310757033 units=km phases=4
new line.L_344 lineCode=ugsc_16cu_xlpe/nyl/pvc_ug_4w_bundled bus1=B2981 bus2=B1832 length=0.00834424794144 units=km phases=4
new line.L_346 lineCode=uglv_240al_xlpe/nyl/pvc_ug_4w_bundled bus1=B3244 bus2=B2537 length=0.0299977606159 units=km phases=4
new line.L_555 lineCode=uglv_240al_xlpe/nyl/pvc_ug_4w_bundled bus1=B1458 bus2=B1747 length=0.0308578526699 units=km phases=4
new line.L_560 lineCode=uglv_240al_xlpe/nyl/pvc_ug_4w_bundled bus1=B1792 bus2=B3244 length=0.0300124556115 units=km phases=4
new line.L_588 lineCode=ugsc_16cu_xlpe/nyl/pvc_ug_4w_bundled bus1=B1856 bus2=B2782 length=0.0103780702874 units=km phases=4
new line.L_620 lineCode=ugsc_16cu_xlpe/nyl/pvc_ug_4w_bundled bus1=B1732 bus2=B2448 length=0.0217008639898 units=km phases=4
new line.L_654 lineCode=ugsc_16cu_xlpe/nyl/pvc_ug_4w_bundled bus1=B1832 bus2=B822 length=0.0160051271363 units=km phases=4
new line.L_876 lineCode=ugsc_16cu_xlpe/nyl/pvc_ug_4w_bundled bus1=B1088 bus2=B2537 length=0.00840799070892 units=km phases=4
new line.L_896 lineCode=ugsc_16cu_xlpe/nyl/pvc_ug_4w_bundled bus1=B2224 bus2=B3329 length=0.00717841363705 units=km phases=4
new line.L_1047 lineCode=ugsc_16cu_xlpe/nyl/pvc_ug_4w_bundled bus1=B318 bus2=B1832 length=0.00832661553936 units=km phases=4
new line.L_1098 lineCode=ugsc_16cu_xlpe/nyl/pvc_ug_4w_bundled bus1=B1732 bus2=B2965 length=0.0160446824320 units=km phases=4
new line.L_1113 lineCode=uglv_240al_xlpe/nyl/pvc_ug_4w_bundled bus1=B1190 bus2=B2827 length=0.0306658837621 units=km phases=4
new line.L_1354 lineCode=ugsc_16cu_xlpe/nyl/pvc_ug_4w_bundled bus1=B1792 bus2=B2653 length=0.0151213018996 units=km phases=4
new line.L_1445 lineCode=ugsc_16cu_xlpe/nyl/pvc_ug_4w_bundled bus1=B2044 bus2=B1190 length=0.00826961197855 units=km phases=4
new line.L_1456 lineCode=ugsc_16cu_xlpe/nyl/pvc_ug_4w_bundled bus1=B2591 bus2=B1190 length=0.00833815552048 units=km phases=4
new line.L_1459 lineCode=ugsc_16cu_xlpe/nyl/pvc_ug_4w_bundled bus1=B2428 bus2=B3244 length=0.00838537533187 units=km phases=4
new line.L_1466 lineCode=ugsc_16cu_xlpe/nyl/pvc_ug_4w_bundled bus1=B1742 bus2=B1926 length=0.00815810480162 units=km phases=4
new line.L_1468 lineCode=ugsc_16cu_xlpe/nyl/pvc_ug_4w_bundled bus1=B289 bus2=B2782 length=0.00893401861331 units=km phases=4
new line.L_1565 lineCode=ugsc_16cu_xlpe/nyl/pvc_ug_4w_bundled bus1=B3244 bus2=B425 length=0.0154675789676 units=km phases=4
new line.L_1598 lineCode=ugsc_16cu_xlpe/nyl/pvc_ug_4w_bundled bus1=B1729 bus2=B1391 length=0.00818595733020 units=km phases=4
new line.L_1609 lineCode=ugsc_16cu_xlpe/nyl/pvc_ug_4w_bundled bus1=B1270 bus2=B1980 length=0.00809430682849 units=km phases=4
new line.L_1643 lineCode=ugsc_16cu_xlpe/nyl/pvc_ug_4w_bundled bus1=B347 bus2=B425 length=0.00807351379741 units=km phases=4
new line.L_1666 lineCode=ugsc_16cu_xlpe/nyl/pvc_ug_4w_bundled bus1=B398 bus2=B2827 length=0.00823446565364 units=km phases=4
new line.L_1776 lineCode=ugsc_16cu_xlpe/nyl/pvc_ug_4w_bundled bus1=B2483 bus2=B1732 length=0.0111617238812 units=km phases=4
new line.L_1790 lineCode=ughv_400al_triplex_ug_4w_bundled bus1=B856 bus2=B1600 length=0.000346758845632 units=km phases=4
new line.L_1852 lineCode=ugsc_16cu_xlpe/nyl/pvc_ug_4w_bundled bus1=B2193 bus2=B1602 length=0.00898042455326 units=km phases=4
new line.L_1864 lineCode=ugsc_16cu_xlpe/nyl/pvc_ug_4w_bundled bus1=B862 bus2=B1458 length=0.0143455032941 units=km phases=4
new line.L_1925 lineCode=ugsc_16cu_xlpe/nyl/pvc_ug_4w_bundled bus1=B17 bus2=B1747 length=0.00978150275879 units=km phases=4
new line.L_1929 lineCode=ugsc_16cu_xlpe/nyl/pvc_ug_4w_bundled bus1=B1016 bus2=B406 length=0.0161598571545 units=km phases=4
new line.L_1931 lineCode=ugsc_16cu_xlpe/nyl/pvc_ug_4w_bundled bus1=B1276 bus2=B2197 length=0.00821038157136 units=km phases=4
new line.L_1942 lineCode=ugsc_16cu_xlpe/nyl/pvc_ug_4w_bundled bus1=B2541 bus2=B2827 length=0.00829485343500 units=km phases=4
new line.L_2032 lineCode=uglv_240al_xlpe/nyl/pvc_ug_4w_bundled bus1=B2224 bus2=B1752 length=0.0415266625162 units=km phases=4
new line.L_2039 lineCode=ugsc_16cu_xlpe/nyl/pvc_ug_4w_bundled bus1=B193 bus2=B1602 length=0.0260144658155 units=km phases=4
new line.L_2072 lineCode=ugsc_16cu_xlpe/nyl/pvc_ug_4w_bundled bus1=B1268 bus2=B1602 length=0.0173241322119 units=km phases=4
new line.L_2079 lineCode=ugsc_16cu_xlpe/nyl/pvc_ug_4w_bundled bus1=B3082 bus2=B2782 length=0.0442742692792 units=km phases=4
new line.L_2136 lineCode=ugsc_16cu_xlpe/nyl/pvc_ug_4w_bundled bus1=B2537 bus2=B480 length=0.0158413339966 units=km phases=4
new line.L_2188 lineCode=ugsc_16cu_xlpe/nyl/pvc_ug_4w_bundled bus1=B1016 bus2=B1700 length=0.0148672914496 units=km phases=4
new line.L_2289 lineCode=ugsc_16cu_xlpe/nyl/pvc_ug_4w_bundled bus1=B1767 bus2=B1732 length=0.0159731015760 units=km phases=4
new line.L_2559 lineCode=ugsc_16cu_xlpe/nyl/pvc_ug_4w_bundled bus1=B1404 bus2=B2653 length=0.00808306661289 units=km phases=4
new line.L_2721 lineCode=ugsc_16cu_xlpe/nyl/pvc_ug_4w_bundled bus1=B104 bus2=B2653 length=0.00808000604154 units=km phases=4
new line.L_2809 lineCode=ugsc_16cu_xlpe/nyl/pvc_ug_4w_bundled bus1=B1307 bus2=B1792 length=0.00835280104556 units=km phases=4
new line.L_2811 lineCode=uglv_240al_xlpe/nyl/pvc_ug_4w_bundled bus1=B1458 bus2=B2224 length=0.0541285933016 units=km phases=4
new line.L_2850 lineCode=ugsc_16cu_xlpe/nyl/pvc_ug_4w_bundled bus1=B2194 bus2=B1391 length=0.00826198865820 units=km phases=4
new line.L_2873 lineCode=ugsc_16cu_xlpe/nyl/pvc_ug_4w_bundled bus1=B3244 bus2=B2488 length=0.0159774161644 units=km phases=4
new line.L_2916 lineCode=uglv_240al_xlpe/nyl/pvc_ug_4w_bundled bus1=B1926 bus2=B2782 length=0.0323468410179 units=km phases=4
new line.L_3026 lineCode=ughv_400al_triplex_ug_4w_bundled bus1=B274 bus2=B856 length=0.000255748683198 units=km phases=4
new line.L_3057 lineCode=ugsc_16cu_xlpe/nyl/pvc_ug_4w_bundled bus1=B1944 bus2=B406 length=0.00788571557227 units=km phases=4
new line.L_3064 lineCode=ugsc_16cu_xlpe/nyl/pvc_ug_4w_bundled bus1=B414 bus2=B2537 length=0.00841020853027 units=km phases=4
new line.L_3090 lineCode=ughv_400al_triplex_ug_4w_bundled bus1=B1436 bus2=B3364 length=6.69200667251e-05 units=km phases=4
new line.L_3102 lineCode=ughv_400al_triplex_ug_4w_bundled bus1=B772 bus2=B1445 length=0.000800000000000 units=km phases=4
new line.L_3153 lineCode=ugsc_16cu_xlpe/nyl/pvc_ug_4w_bundled bus1=B2638 bus2=B480 length=0.00805653416276 units=km phases=4
new line.L_3189 lineCode=ugsc_16cu_xlpe/nyl/pvc_ug_4w_bundled bus1=B484 bus2=B1016 length=0.00720048418545 units=km phases=4
new line.L_3214 lineCode=uglv_240al_xlpe/nyl/pvc_ug_4w_bundled bus1=B1832 bus2=B1792 length=0.0300050957868 units=km phases=4
new line.L_3303 lineCode=ughv_400al_triplex_ug_4w_bundled bus1=B856 bus2=B914 length=0.000557850203305 units=km phases=4
new line.L_3312 lineCode=ugsc_16cu_xlpe/nyl/pvc_ug_4w_bundled bus1=B2545 bus2=B2224 length=0.0181551889264 units=km phases=4
new line.L_3335 lineCode=ugsc_16cu_xlpe/nyl/pvc_ug_4w_bundled bus1=B2970 bus2=B2965 length=0.00808181352097 units=km phases=4
new line.L_3447 lineCode=ugsc_16cu_xlpe/nyl/pvc_ug_4w_bundled bus1=B1602 bus2=B789 length=0.0189865504930 units=km phases=4
new line.L_3456 lineCode=uglv_240al_xlpe/nyl/pvc_ug_4w_bundled bus1=B2827 bus2=B1391 length=0.0306512871634 units=km phases=4
new line.L_3541 lineCode=uglv_240al_xlpe/nyl/pvc_ug_4w_bundled bus1=B1458 bus2=B1602 length=0.0217421652589 units=km phases=4
new line.L_3570 lineCode=ughv_400al_triplex_ug_4w_bundled bus1=B3245 bus2=B1747 length=0.000800000000000 units=km phases=4
new line.L_3686 lineCode=ugsc_16cu_xlpe/nyl/pvc_ug_4w_bundled bus1=B2376 bus2=B1792 length=0.00834916684268 units=km phases=4
new line.L_3721 lineCode=uglv_240al_xlpe/nyl/pvc_ug_4w_bundled bus1=B2782 bus2=B1445 length=0.0452283517801 units=km phases=4
new line.L_3748 lineCode=uglv_240al_xlpe/nyl/pvc_ug_4w_bundled bus1=B3219 bus2=B1016 length=0.00665819774230 units=km phases=4
new line.L_3791 lineCode=ugsc_16cu_xlpe/nyl/pvc_ug_4w_bundled bus1=B948 bus2=B3244 length=0.00838600611317 units=km phases=4
new line.L_3806 lineCode=ugsc_16cu_xlpe/nyl/pvc_ug_4w_bundled bus1=B1005 bus2=B425 length=0.00807071797498 units=km phases=4
new line.L_3811 lineCode=ugsc_16cu_xlpe/nyl/pvc_ug_4w_bundled bus1=B808 bus2=B1980 length=0.00788690472765 units=km phases=4
new line.L_3905 lineCode=uglv_240al_xlpe/nyl/pvc_ug_4w_bundled bus1=B2197 bus2=B1190 length=0.0302012290878 units=km phases=4
new line.L_3973 lineCode=uglv_240al_xlpe/nyl/pvc_ug_4w_bundled bus1=B1016 bus2=B1832 length=0.0293356137647 units=km phases=4
new line.L_4088 lineCode=ugsc_16cu_xlpe/nyl/pvc_ug_4w_bundled bus1=B2957 bus2=B1767 length=0.00418312117604 units=km phases=4
new line.L_4116 lineCode=ughv_400al_triplex_ug_4w_bundled bus1=B1533 bus2=B2961 length=6.69200667251e-05 units=km phases=4
new line.L_4252 lineCode=ugsc_16cu_xlpe/nyl/pvc_ug_4w_bundled bus1=B2712 bus2=B2965 length=0.00913135362727 units=km phases=4
new line.L_4373 lineCode=uglv_240al_xlpe/nyl/pvc_ug_4w_bundled bus1=B1602 bus2=B2197 length=0.0524214539591 units=km phases=4
new line.L_4424 lineCode=ughv_400al_triplex_ug_4w_bundled bus1=B856 bus2=B1145 length=0.000320871851708 units=km phases=4
new line.L_4523 lineCode=ugsc_16cu_xlpe/nyl/pvc_ug_4w_bundled bus1=B2696 bus2=B2224 length=0.0249815510531 units=km phases=4
new line.L_4558 lineCode=ugsc_16cu_xlpe/nyl/pvc_ug_4w_bundled bus1=B2519 bus2=B2965 length=0.00523624101253 units=km phases=4
new line.L_4565 lineCode=uglv_240al_xlpe/nyl/pvc_ug_4w_bundled bus1=B1391 bus2=B1926 length=0.0306736110405 units=km phases=4
new line.L_4574 lineCode=ugsc_16cu_xlpe/nyl/pvc_ug_4w_bundled bus1=B546 bus2=B2197 length=0.00817336332106 units=km phases=4
new line.L_4631 lineCode=ugsc_16cu_xlpe/nyl/pvc_ug_4w_bundled bus1=B1832 bus2=B1980 length=0.0147842921113 units=km phases=4
